*
.OP
.AC DEC 20 1Hz 100MegHz

.plot ac v(output) v(input)
.print ac v(output) v(input)
